<?xml version="1.0" encoding="UTF-8"?>

<!-- generated on 2023-11-27 20:08:06.974065 by generateContinuousRerouters.py UNKNOWN
  options: -n ./nets/osm.net.xml <doubleminus>end 10000 -o nets/osm.add.xml
-->

<additional xmlns:xsi="http://www.w3.org/2001/XMLSchema-instance" xsi:noNamespaceSchemaLocation="http://sumo.dlr.de/xsd/additional_file.xsd">
    <route id="-429556372#1_398946754#0" edges="-429556372#1 398946754#0 398946751#0"/>
    <route id="845899334#0_20726783#0" edges="845899334#0 20726783#0 -429556372#1 398946754#0 398946751#0"/>
    <route id="-895530326#3_-486905456#2" edges="-895530326#3 -486905456#2 486905456#0"/>
    <route id="-895530326#3_814741694#0" edges="-895530326#3 814741694#0"/>
    <route id="-895530326#3_814741696#4" edges="-895530326#3 814741696#4 430287610#0 430671833#0 1212185923#0"/>
    <route id="-895530326#3_895530326#1" edges="-895530326#3 895530326#1 -895530326#3"/>
    <rerouter id="rr_-895530326#3" edges="-895530326#3">
        <interval begin="0" end="10000">
            <routeProbReroute id="-895530326#3_-486905456#2" probability="50.0"/>
            <routeProbReroute id="-895530326#3_814741694#0" probability="20.0"/>
            <routeProbReroute id="-895530326#3_814741696#4" probability="30.0"/>
            <routeProbReroute id="-895530326#3_895530326#1" probability="0"/>
        </interval>
    </rerouter>
    <route id="410092865#0_-486905456#2" edges="410092865#0 -486905456#2 486905456#0"/>
    <route id="410092865#0_814741694#0" edges="410092865#0 814741694#0"/>
    <route id="410092865#0_814741696#4" edges="410092865#0 814741696#4 430287610#0 430671833#0 1212185923#0"/>
    <route id="410092865#0_895530326#1" edges="410092865#0 895530326#1 -895530326#3"/>
    <rerouter id="rr_410092865#0" edges="410092865#0">
        <interval begin="0" end="10000">
            <routeProbReroute id="410092865#0_-486905456#2" probability="30.0"/>
            <routeProbReroute id="410092865#0_814741694#0" probability="50.0"/>
            <routeProbReroute id="410092865#0_814741696#4" probability="0"/>
            <routeProbReroute id="410092865#0_895530326#1" probability="20.0"/>
        </interval>
    </rerouter>
    <route id="486905456#0_-486905456#2" edges="486905456#0 -486905456#2 486905456#0"/>
    <route id="486905456#0_814741694#0" edges="486905456#0 814741694#0"/>
    <route id="486905456#0_814741696#4" edges="486905456#0 814741696#4 430287610#0 430671833#0 1212185923#0"/>
    <route id="486905456#0_895530326#1" edges="486905456#0 895530326#1 -895530326#3"/>
    <rerouter id="rr_486905456#0" edges="486905456#0">
        <interval begin="0" end="10000">
            <routeProbReroute id="486905456#0_-486905456#2" probability="0"/>
            <routeProbReroute id="486905456#0_814741694#0" probability="30.0"/>
            <routeProbReroute id="486905456#0_814741696#4" probability="20.0"/>
            <routeProbReroute id="486905456#0_895530326#1" probability="50.0"/>
        </interval>
    </rerouter>
    <route id="814741696#0_-486905456#2" edges="814741696#0 -486905456#2 486905456#0"/>
    <route id="814741696#0_814741694#0" edges="814741696#0 814741694#0"/>
    <route id="814741696#0_814741696#4" edges="814741696#0 814741696#4 430287610#0 430671833#0 1212185923#0"/>
    <route id="814741696#0_895530326#1" edges="814741696#0 895530326#1 -895530326#3"/>
    <rerouter id="rr_814741696#0" edges="814741696#0">
        <interval begin="0" end="10000">
            <routeProbReroute id="814741696#0_-486905456#2" probability="20.0"/>
            <routeProbReroute id="814741696#0_814741694#0" probability="0"/>
            <routeProbReroute id="814741696#0_814741696#4" probability="50.0"/>
            <routeProbReroute id="814741696#0_895530326#1" probability="30.0"/>
        </interval>
    </rerouter>
    <route id="430671832#0_1193299004#0" edges="430671832#0 1193299004#0 1193299004#2-AddedOnRampEdge 1193299004#2"/>
    <route id="430671832#0_430671831#0" edges="430671832#0 430671831#0 228621811#0-AddedOnRampEdge 228621811#0"/>
    <route id="430671832#0_430848086#0" edges="430671832#0 430848086#0 1212185922#0"/>
    <rerouter id="rr_430671832#0" edges="430671832#0">
        <interval begin="0" end="10000">
            <routeProbReroute id="430671832#0_1193299004#0" probability="20.0"/>
            <routeProbReroute id="430671832#0_430671831#0" probability="0"/>
            <routeProbReroute id="430671832#0_430848086#0" probability="30.0"/>
        </interval>
    </rerouter>
    <route id="430671835#0_1193299004#0" edges="430671835#0 1193299004#0 1193299004#2-AddedOnRampEdge 1193299004#2"/>
    <route id="430671835#0_430671831#0" edges="430671835#0 430671831#0 228621811#0-AddedOnRampEdge 228621811#0"/>
    <route id="430671835#0_430848086#0" edges="430671835#0 430848086#0 1212185922#0"/>
    <rerouter id="rr_430671835#0" edges="430671835#0">
        <interval begin="0" end="10000">
            <routeProbReroute id="430671835#0_1193299004#0" probability="50.0"/>
            <routeProbReroute id="430671835#0_430671831#0" probability="20.0"/>
            <routeProbReroute id="430671835#0_430848086#0" probability="0"/>
        </interval>
    </rerouter>
    <route id="430848079#0_1193299004#0" edges="430848079#0 1193299004#0 1193299004#2-AddedOnRampEdge 1193299004#2"/>
    <route id="430848079#0_430848086#0" edges="430848079#0 430848086#0 1212185922#0"/>
    <rerouter id="rr_430848079#0" edges="430848079#0">
        <interval begin="0" end="10000">
            <routeProbReroute id="430848079#0_1193299004#0" probability="0"/>
            <routeProbReroute id="430848079#0_430848086#0" probability="50.0"/>
        </interval>
    </rerouter>
    <route id="228621811#0_1212185895" edges="228621811#0 1212185895 410060082#1 430671832#0"/>
    <route id="228621811#0_228621811#1" edges="228621811#0 228621811#1"/>
    <rerouter id="rr_228621811#0" edges="228621811#0">
        <interval begin="0" end="10000">
            <routeProbReroute id="228621811#0_1212185895" probability="20.0"/>
            <routeProbReroute id="228621811#0_228621811#1" probability="50.0"/>
        </interval>
    </rerouter>
    <route id="1212185908_430671836" edges="1212185908 430671836 228621811#0-AddedOnRampEdge 228621811#0"/>
    <route id="1212185908_430848079#0" edges="1212185908 430848079#0"/>
    <rerouter id="rr_1212185908" edges="1212185908">
        <interval begin="0" end="10000">
            <routeProbReroute id="1212185908_430671836" probability="20.0"/>
            <routeProbReroute id="1212185908_430848079#0" probability="50.0"/>
        </interval>
    </rerouter>
    <route id="1212185922#0_845899334#0" edges="1212185922#0 845899334#0 20726783#0 -429556372#1 398946754#0 398946751#0"/>
    <route id="1212185922#0_845899335" edges="1212185922#0 845899335 430287608"/>
    <route id="1212185922#0_845899337#0" edges="1212185922#0 845899337#0 1221220850 1212185894 430671835#0"/>
    <rerouter id="rr_1212185922#0" edges="1212185922#0">
        <interval begin="0" end="10000">
            <routeProbReroute id="1212185922#0_845899334#0" probability="20.0"/>
            <routeProbReroute id="1212185922#0_845899335" probability="50.0"/>
            <routeProbReroute id="1212185922#0_845899337#0" probability="0"/>
        </interval>
    </rerouter>
    <route id="1212185923#0_845899334#0" edges="1212185923#0 845899334#0 20726783#0 -429556372#1 398946754#0 398946751#0"/>
    <route id="1212185923#0_845899335" edges="1212185923#0 845899335 430287608"/>
    <route id="1212185923#0_845899337#0" edges="1212185923#0 845899337#0 1221220850 1212185894 430671835#0"/>
    <rerouter id="rr_1212185923#0" edges="1212185923#0">
        <interval begin="0" end="10000">
            <routeProbReroute id="1212185923#0_845899334#0" probability="30.0"/>
            <routeProbReroute id="1212185923#0_845899335" probability="0"/>
            <routeProbReroute id="1212185923#0_845899337#0" probability="50.0"/>
        </interval>
    </rerouter>
    <route id="398946751#0_845899334#0" edges="398946751#0 845899334#0 20726783#0 -429556372#1 398946754#0 398946751#0"/>
    <route id="398946751#0_845899335" edges="398946751#0 845899335 430287608"/>
    <route id="398946751#0_845899337#0" edges="398946751#0 845899337#0 1221220850 1212185894 430671835#0"/>
    <rerouter id="rr_398946751#0" edges="398946751#0">
        <interval begin="0" end="10000">
            <routeProbReroute id="398946751#0_845899334#0" probability="0"/>
            <routeProbReroute id="398946751#0_845899335" probability="20.0"/>
            <routeProbReroute id="398946751#0_845899337#0" probability="30.0"/>
        </interval>
    </rerouter>
    <route id="430287608_407799856" edges="430287608 407799856"/>
    <route id="430287608_430287607#0" edges="430287608 430287607#0 410092865#0"/>
    <rerouter id="rr_430287608" edges="430287608">
        <interval begin="0" end="10000">
            <routeProbReroute id="430287608_407799856" probability="50.0"/>
            <routeProbReroute id="430287608_430287607#0" probability="50.0"/>
        </interval>
    </rerouter>
</additional>
