<?xml version="1.0" encoding="UTF-8"?>

<!-- generated on 2023-11-23 16:40:55 by Eclipse SUMO netconvert Version 1.18.0
<configuration xmlns:xsi="http://www.w3.org/2001/XMLSchema-instance" xsi:noNamespaceSchemaLocation="http://sumo.dlr.de/xsd/netconvertConfiguration.xsd">

    <input>
        <type-files value="${SUMO_HOME}/data/typemap/osmNetconvert.typ.xml"/>
        <osm-files value="osm_bbox.osm.xml.gz"/>
    </input>

    <output>
        <output-file value="osm.net.xml.gz"/>
        <output.street-names value="true"/>
        <output.original-names value="true"/>
    </output>

    <projection>
        <proj.utm value="true"/>
    </projection>

    <processing>
        <geometry.remove value="true"/>
        <roundabouts.guess value="true"/>
    </processing>

    <tls_building>
        <tls.discard-simple value="true"/>
        <tls.join value="true"/>
        <tls.guess-signals value="true"/>
        <tls.default-type value="actuated"/>
    </tls_building>

    <ramp_guessing>
        <ramps.guess value="true"/>
    </ramp_guessing>

    <junctions>
        <junctions.join value="true"/>
        <junctions.corner-detail value="5"/>
    </junctions>

</configuration>
-->

<net version="1.16" junctionCornerDetail="5" limitTurnSpeed="5.50" xmlns:xsi="http://www.w3.org/2001/XMLSchema-instance" xsi:noNamespaceSchemaLocation="http://sumo.dlr.de/xsd/net_file.xsd">

    <location netOffset="-756050.59,-3388735.69" convBoundary="0.00,0.00,2414.52,2107.45" origBoundary="-96.328816,30.603299,-96.303937,30.622813" projParameter="+proj=utm +zone=14 +ellps=WGS84 +datum=WGS84 +units=m +no_defs"/>

    <type id="highway.primary" priority="12" numLanes="2" speed="27.78" disallow="tram rail_urban rail rail_electric rail_fast ship" oneway="0"/>
    <type id="highway.primary_link" priority="7" numLanes="1" speed="22.22" disallow="tram rail_urban rail rail_electric rail_fast ship" oneway="0"/>
    <type id="highway.secondary" priority="11" numLanes="1" speed="27.78" disallow="tram rail_urban rail rail_electric rail_fast ship" oneway="0"/>
    <type id="highway.secondary_link" priority="6" numLanes="1" speed="22.22" disallow="tram rail_urban rail rail_electric rail_fast ship" oneway="0"/>

    <edge id=":11230625286_0" function="internal">
        <lane id=":11230625286_0_0" index="0" disallow="tram rail_urban rail rail_electric rail_fast ship" speed="27.78" length="8.21" shape="868.95,1337.62 870.61,1335.88 871.47,1334.42 872.34,1332.96 874.00,1331.21"/>
        <lane id=":11230625286_0_1" index="1" disallow="tram rail_urban rail rail_electric rail_fast ship" speed="27.78" length="8.21" shape="871.03,1340.06 872.69,1338.31 873.55,1336.85 874.41,1335.39 876.07,1333.65"/>
        <lane id=":11230625286_0_2" index="2" disallow="tram rail_urban rail rail_electric rail_fast ship" speed="27.78" length="8.21" shape="873.10,1342.49 874.76,1340.75 875.63,1339.29 876.49,1337.83 878.15,1336.08"/>
        <lane id=":11230625286_0_3" index="3" disallow="tram rail_urban rail rail_electric rail_fast ship" speed="27.78" length="8.21" shape="875.18,1344.93 876.84,1343.18 877.70,1341.72 878.57,1340.26 880.23,1338.52"/>
        <lane id=":11230625286_0_4" index="4" disallow="tram rail_urban rail rail_electric rail_fast ship" speed="27.78" length="8.21" shape="875.18,1344.93 877.16,1343.56 878.74,1342.94 880.32,1342.32 882.30,1340.95"/>
    </edge>
    <edge id=":11230625291_0" function="internal">
        <lane id=":11230625291_0_0" index="0" disallow="tram rail_urban rail rail_electric rail_fast ship" speed="17.88" length="10.02" shape="418.73,1554.17 416.76,1551.84 415.78,1549.96 415.03,1547.92 413.71,1545.09"/>
        <lane id=":11230625291_0_1" index="1" disallow="tram rail_urban rail rail_electric rail_fast ship" speed="17.88" length="10.02" shape="421.01,1551.93 419.22,1549.78 418.36,1548.04 417.71,1546.15 416.52,1543.56"/>
    </edge>
    <edge id=":11230625291_2" function="internal">
        <lane id=":11230625291_2_0" index="0" disallow="tram rail_urban rail rail_electric rail_fast ship" speed="13.79" length="8.39" shape="423.28,1549.68 421.67,1547.84 420.86,1546.35 420.39,1544.66 419.79,1542.24"/>
    </edge>
    <edge id=":11230625306_0" function="internal">
        <lane id=":11230625306_0_0" index="0" disallow="tram rail_urban rail rail_electric rail_fast ship" speed="27.78" length="9.20" shape="448.03,1699.55 449.47,1697.34 449.47,1695.16 449.46,1692.98 450.89,1690.74"/>
        <lane id=":11230625306_0_1" index="1" disallow="tram rail_urban rail rail_electric rail_fast ship" speed="27.78" length="9.20" shape="448.03,1699.55 449.68,1697.82 450.53,1696.36 451.37,1694.90 452.99,1693.14"/>
        <lane id=":11230625306_0_2" index="2" disallow="tram rail_urban rail rail_electric rail_fast ship" speed="27.78" length="9.20" shape="448.03,1699.55 450.01,1698.19 451.58,1697.57 453.14,1696.93 455.10,1695.55"/>
        <lane id=":11230625306_0_3" index="3" disallow="tram rail_urban rail rail_electric rail_fast ship" speed="27.78" length="9.20" shape="448.03,1699.55 450.47,1698.46 452.64,1698.77 454.80,1699.08 457.21,1697.96"/>
        <lane id=":11230625306_0_4" index="4" disallow="tram rail_urban rail rail_electric rail_fast ship" speed="27.78" length="9.20" shape="450.11,1701.99 452.56,1700.88 454.73,1701.19 456.90,1701.49 459.32,1700.37"/>
        <lane id=":11230625306_0_5" index="5" disallow="tram rail_urban rail rail_electric rail_fast ship" speed="27.78" length="9.20" shape="452.19,1704.42 454.64,1703.31 456.82,1703.61 459.00,1703.90 461.43,1702.77"/>
    </edge>
    <edge id=":11323035570_0" function="internal">
        <lane id=":11323035570_0_0" index="0" disallow="tram rail_urban rail rail_electric rail_fast ship" speed="27.78" length="8.21" shape="765.32,1458.01 763.66,1459.76 762.80,1461.22 761.94,1462.68 760.29,1464.43"/>
        <lane id=":11323035570_0_1" index="1" disallow="tram rail_urban rail rail_electric rail_fast ship" speed="27.78" length="8.21" shape="765.32,1458.01 763.33,1459.38 761.76,1460.01 760.19,1460.63 758.20,1462.00"/>
        <lane id=":11323035570_0_2" index="2" disallow="tram rail_urban rail rail_electric rail_fast ship" speed="27.78" length="8.21" shape="763.23,1455.58 761.25,1456.95 759.68,1457.58 758.10,1458.20 756.12,1459.58"/>
        <lane id=":11323035570_0_3" index="3" disallow="tram rail_urban rail rail_electric rail_fast ship" speed="27.78" length="8.21" shape="761.15,1453.15 759.17,1454.52 757.59,1455.15 756.02,1455.78 754.04,1457.15"/>
    </edge>
    <edge id=":1193299004#2-AddedOnRampNode_0" function="internal">
        <lane id=":1193299004#2-AddedOnRampNode_0_0" index="0" disallow="tram rail_urban rail rail_electric rail_fast ship" speed="27.78" length="8.00" shape="432.92,1742.86 426.79,1748.01"/>
        <lane id=":1193299004#2-AddedOnRampNode_0_1" index="1" disallow="tram rail_urban rail rail_electric rail_fast ship" speed="27.78" length="8.00" shape="430.86,1740.41 424.73,1745.56"/>
        <lane id=":1193299004#2-AddedOnRampNode_0_2" index="2" disallow="tram rail_urban rail rail_electric rail_fast ship" speed="27.78" length="8.00" shape="428.80,1737.96 422.68,1743.11"/>
    </edge>
    <edge id=":1500886743_0" function="internal">
        <lane id=":1500886743_0_0" index="0" disallow="tram rail_urban rail rail_electric rail_fast ship" speed="22.83" length="9.06" shape="1153.03,1099.22 1154.43,1096.70 1154.00,1094.17 1153.58,1091.64 1154.99,1089.14"/>
        <lane id=":1500886743_0_1" index="1" disallow="tram rail_urban rail rail_electric rail_fast ship" speed="22.83" length="9.06" shape="1153.03,1099.22 1154.58,1097.23 1155.03,1095.39 1155.50,1093.56 1157.06,1091.58"/>
        <lane id=":1500886743_0_2" index="2" disallow="tram rail_urban rail rail_electric rail_fast ship" speed="22.83" length="9.06" shape="1153.03,1099.22 1159.12,1094.03"/>
        <lane id=":1500886743_0_3" index="3" disallow="tram rail_urban rail rail_electric rail_fast ship" speed="22.83" length="9.06" shape="1153.03,1099.22 1155.22,1098.00 1157.10,1097.83 1158.99,1097.68 1161.19,1096.47"/>
        <lane id=":1500886743_0_4" index="4" disallow="tram rail_urban rail rail_electric rail_fast ship" speed="22.83" length="9.06" shape="1155.12,1101.65 1157.30,1100.43 1159.18,1100.27 1161.06,1100.12 1163.25,1098.91"/>
    </edge>
    <edge id=":222494976_0" function="internal">
        <lane id=":222494976_0_0" index="0" disallow="tram rail_urban rail rail_electric rail_fast ship" speed="17.88" length="14.18" shape="387.33,1495.54 397.18,1505.71"/>
        <lane id=":222494976_0_1" index="1" disallow="tram rail_urban rail rail_electric rail_fast ship" speed="17.88" length="14.18" shape="385.02,1497.74 394.90,1507.95"/>
    </edge>
    <edge id=":222494976_2" function="internal">
        <lane id=":222494976_2_0" index="0" disallow="tram rail_urban rail rail_electric rail_fast ship" speed="3.48" length="4.00" shape="390.94,1508.52 394.90,1507.95"/>
    </edge>
    <edge id=":222505508_0" function="internal">
        <lane id=":222505508_0_0" index="0" disallow="tram rail_urban rail rail_electric rail_fast ship" speed="23.95" length="0.46" shape="1246.85,1016.00 1246.94,1015.93"/>
        <lane id=":222505508_0_1" index="1" disallow="tram rail_urban rail rail_electric rail_fast ship" speed="23.95" length="0.46" shape="1248.80,1018.54 1249.06,1018.32"/>
        <lane id=":222505508_0_2" index="2" disallow="tram rail_urban rail rail_electric rail_fast ship" speed="23.95" length="0.46" shape="1250.74,1021.08 1251.19,1020.71"/>
        <lane id=":222505508_0_3" index="3" disallow="tram rail_urban rail rail_electric rail_fast ship" speed="23.95" length="0.46" shape="1252.69,1023.62 1253.31,1023.11"/>
    </edge>
    <edge id=":222526887_0" function="internal">
        <lane id=":222526887_0_0" index="0" disallow="tram rail_urban rail rail_electric rail_fast ship" speed="22.83" length="8.07" shape="1269.50,1026.52 1267.92,1028.35 1267.11,1029.84 1266.27,1031.31 1264.62,1033.06"/>
        <lane id=":222526887_0_1" index="1" disallow="tram rail_urban rail rail_electric rail_fast ship" speed="22.83" length="8.07" shape="1267.30,1024.19 1265.75,1025.99 1264.96,1027.46 1264.15,1028.91 1262.53,1030.64"/>
        <lane id=":222526887_0_2" index="2" disallow="tram rail_urban rail rail_electric rail_fast ship" speed="22.83" length="8.07" shape="1265.10,1021.86 1263.59,1023.63 1262.82,1025.09 1262.03,1026.52 1260.45,1028.21"/>
    </edge>
    <edge id=":222541177_0" function="internal">
        <lane id=":222541177_0_0" index="0" disallow="tram rail_urban rail rail_electric rail_fast ship" speed="3.65" length="4.67" shape="2415.69,958.46 2415.93,959.89 2415.61,960.73 2414.76,960.98 2413.35,960.65"/>
    </edge>
    <edge id=":222587311_0" function="internal">
        <lane id=":222587311_0_0" index="0" disallow="tram rail_urban rail rail_electric rail_fast ship" speed="3.65" length="4.67" shape="1730.80,2087.64 1731.03,2089.07 1730.72,2089.91 1729.86,2090.16 1728.46,2089.82"/>
    </edge>
    <edge id=":222596276_0" function="internal">
        <lane id=":222596276_0_0" index="0" disallow="tram rail_urban rail rail_electric rail_fast ship" speed="3.65" length="4.67" shape="1705.31,179.93 1705.13,178.50 1705.47,177.68 1706.33,177.45 1707.73,177.83"/>
    </edge>
    <edge id=":228621811#0-AddedOnRampNode_0" function="internal">
        <lane id=":228621811#0-AddedOnRampNode_0_0" index="0" disallow="tram rail_urban rail rail_electric rail_fast ship" speed="17.88" length="0.10" shape="422.39,1557.87 422.39,1557.87"/>
        <lane id=":228621811#0-AddedOnRampNode_0_1" index="1" disallow="tram rail_urban rail rail_electric rail_fast ship" speed="17.88" length="0.10" shape="424.66,1555.62 424.66,1555.62"/>
        <lane id=":228621811#0-AddedOnRampNode_0_2" index="2" disallow="tram rail_urban rail rail_electric rail_fast ship" speed="17.88" length="0.10" shape="426.94,1553.38 426.94,1553.38"/>
    </edge>
    <edge id=":3902845858_0" function="internal">
        <lane id=":3902845858_0_0" index="0" disallow="tram rail_urban rail rail_electric rail_fast ship" speed="27.78" length="8.21" shape="713.01,1500.79 711.35,1502.54 710.48,1504.01 709.62,1505.47 707.96,1507.21"/>
        <lane id=":3902845858_0_1" index="1" disallow="tram rail_urban rail rail_electric rail_fast ship" speed="27.78" length="8.21" shape="710.92,1498.36 709.27,1500.11 708.41,1501.57 707.54,1503.03 705.88,1504.77"/>
        <lane id=":3902845858_0_2" index="2" disallow="tram rail_urban rail rail_electric rail_fast ship" speed="27.78" length="8.21" shape="708.84,1495.93 707.18,1497.68 706.33,1499.14 705.47,1500.60 703.81,1502.34"/>
    </edge>
    <edge id=":3902845863_0" function="internal">
        <lane id=":3902845863_0_0" index="0" disallow="tram rail_urban rail rail_electric rail_fast ship" speed="27.78" length="8.65" shape="629.38,1574.05 627.84,1576.02 627.40,1577.85 626.96,1579.68 625.43,1581.66"/>
        <lane id=":3902845863_0_1" index="1" disallow="tram rail_urban rail rail_electric rail_fast ship" speed="27.78" length="8.65" shape="627.31,1571.62 625.76,1573.59 625.31,1575.42 624.87,1577.26 623.34,1579.24"/>
        <lane id=":3902845863_0_2" index="2" disallow="tram rail_urban rail rail_electric rail_fast ship" speed="27.78" length="8.65" shape="625.23,1569.18 623.68,1571.16 623.23,1572.99 622.78,1574.83 621.24,1576.82"/>
        <lane id=":3902845863_0_3" index="3" disallow="tram rail_urban rail rail_electric rail_fast ship" speed="27.78" length="8.65" shape="625.23,1569.18 619.15,1574.41"/>
        <lane id=":3902845863_0_4" index="4" disallow="tram rail_urban rail rail_electric rail_fast ship" speed="27.78" length="8.65" shape="625.23,1569.18 623.03,1570.40 621.13,1570.57 619.25,1570.75 617.05,1571.99"/>
    </edge>
    <edge id=":4016860608_0" function="internal">
        <lane id=":4016860608_0_0" index="0" disallow="tram rail_urban rail rail_electric rail_fast ship" speed="27.78" length="8.40" shape="1046.59,1372.56 1044.54,1371.10 1042.69,1370.73 1040.84,1370.36 1038.79,1368.90"/>
        <lane id=":4016860608_0_1" index="1" disallow="tram rail_urban rail rail_electric rail_fast ship" speed="27.78" length="8.40" shape="1046.59,1372.56 1041.13,1366.72"/>
        <lane id=":4016860608_0_2" index="2" disallow="tram rail_urban rail rail_electric rail_fast ship" speed="27.78" length="8.40" shape="1048.93,1370.38 1043.46,1364.53"/>
        <lane id=":4016860608_0_3" index="3" disallow="tram rail_urban rail rail_electric rail_fast ship" speed="27.78" length="8.40" shape="1048.93,1370.38 1047.61,1368.24 1047.36,1366.36 1047.12,1364.49 1045.80,1362.35"/>
    </edge>
    <edge id=":4016860612_0" function="internal">
        <lane id=":4016860612_0_0" index="0" disallow="tram rail_urban rail rail_electric rail_fast ship" speed="27.78" length="0.33" shape="1105.97,1430.81 1106.04,1430.78"/>
        <lane id=":4016860612_0_1" index="1" disallow="tram rail_urban rail rail_electric rail_fast ship" speed="27.78" length="0.33" shape="1108.34,1428.66 1108.23,1428.53 1108.17,1428.43 1108.10,1428.34 1107.98,1428.22"/>
    </edge>
    <edge id=":4016860612_2" function="internal">
        <lane id=":4016860612_2_0" index="0" disallow="tram rail_urban rail rail_electric rail_fast ship" speed="27.78" length="0.44" shape="1113.22,1424.77 1113.07,1424.35"/>
        <lane id=":4016860612_2_1" index="1" disallow="tram rail_urban rail rail_electric rail_fast ship" speed="27.78" length="0.44" shape="1110.37,1426.22 1110.44,1426.33 1110.52,1426.38 1110.60,1426.42 1110.70,1426.51"/>
    </edge>
    <edge id=":4098318400_0" function="internal">
        <lane id=":4098318400_0_0" index="0" disallow="tram rail_urban rail rail_electric rail_fast ship" speed="20.05" length="3.81" shape="1196.71,1053.86 1199.68,1051.48"/>
    </edge>
    <edge id=":4098318400_1" function="internal">
        <lane id=":4098318400_1_0" index="0" disallow="tram rail_urban rail rail_electric rail_fast ship" speed="22.83" length="3.46" shape="1198.78,1056.31 1201.56,1053.90"/>
        <lane id=":4098318400_1_1" index="1" disallow="tram rail_urban rail rail_electric rail_fast ship" speed="22.83" length="3.46" shape="1200.85,1058.75 1203.52,1056.44"/>
        <lane id=":4098318400_1_2" index="2" disallow="tram rail_urban rail rail_electric rail_fast ship" speed="22.83" length="3.46" shape="1202.91,1061.20 1205.48,1058.98"/>
        <lane id=":4098318400_1_3" index="3" disallow="tram rail_urban rail rail_electric rail_fast ship" speed="22.83" length="3.46" shape="1204.98,1063.64 1207.44,1061.51"/>
    </edge>
    <edge id=":4297371832_0" function="internal">
        <lane id=":4297371832_0_0" index="0" disallow="tram rail_urban rail rail_electric rail_fast ship" speed="23.95" length="0.29" shape="1358.50,954.07 1358.24,954.29"/>
        <lane id=":4297371832_0_1" index="1" disallow="tram rail_urban rail rail_electric rail_fast ship" speed="23.95" length="0.29" shape="1356.40,951.66 1356.16,951.86"/>
        <lane id=":4297371832_0_2" index="2" disallow="tram rail_urban rail rail_electric rail_fast ship" speed="23.95" length="0.29" shape="1354.29,949.25 1354.08,949.43"/>
        <lane id=":4297371832_0_3" index="3" disallow="tram rail_urban rail rail_electric rail_fast ship" speed="23.95" length="0.29" shape="1352.19,946.84 1352.01,946.99"/>
    </edge>
    <edge id=":4299363905_0" function="internal">
        <lane id=":4299363905_0_0" index="0" disallow="tram rail_urban rail rail_electric rail_fast ship" speed="17.88" length="8.40" shape="436.20,1545.58 438.28,1546.99 440.15,1547.33 442.01,1547.67 444.08,1549.10"/>
        <lane id=":4299363905_0_1" index="1" disallow="tram rail_urban rail rail_electric rail_fast ship" speed="17.88" length="8.40" shape="436.20,1545.58 441.78,1551.32"/>
        <lane id=":4299363905_0_2" index="2" disallow="tram rail_urban rail rail_electric rail_fast ship" speed="17.88" length="8.40" shape="433.91,1547.82 439.48,1553.54"/>
        <lane id=":4299363905_0_3" index="3" disallow="tram rail_urban rail rail_electric rail_fast ship" speed="17.88" length="8.40" shape="433.91,1547.82 435.27,1549.92 435.55,1551.78 435.83,1553.65 437.18,1555.77"/>
    </edge>
    <edge id=":4299363906_0" function="internal">
        <lane id=":4299363906_0_0" index="0" disallow="tram rail_urban rail rail_electric rail_fast ship" speed="20.05" length="3.22" shape="492.62,1631.12 492.06,1630.35 491.66,1629.83 491.23,1629.33 490.58,1628.64"/>
    </edge>
    <edge id=":4299363906_1" function="internal">
        <lane id=":4299363906_1_0" index="0" disallow="tram rail_urban rail rail_electric rail_fast ship" speed="17.88" length="3.18" shape="495.11,1628.75 492.90,1626.44"/>
        <lane id=":4299363906_1_1" index="1" disallow="tram rail_urban rail rail_electric rail_fast ship" speed="17.88" length="3.18" shape="497.41,1626.53 495.23,1624.24"/>
    </edge>
    <edge id=":5852540829_0" function="internal">
        <lane id=":5852540829_0_0" index="0" disallow="tram rail_urban rail rail_electric rail_fast ship" speed="25.00" length="5.94" shape="478.32,1666.71 479.67,1665.59 480.68,1664.93 481.76,1664.36 483.32,1663.53"/>
    </edge>
    <edge id=":5852540829_1" function="internal">
        <lane id=":5852540829_1_0" index="0" disallow="tram rail_urban rail rail_electric rail_fast ship" speed="27.78" length="4.59" shape="480.43,1669.11 481.55,1667.80 482.05,1666.67 482.56,1665.54 483.72,1664.28"/>
        <lane id=":5852540829_1_1" index="1" disallow="tram rail_urban rail rail_electric rail_fast ship" speed="27.78" length="4.59" shape="482.54,1671.52 483.50,1670.35 483.89,1669.30 484.28,1668.27 485.29,1667.14"/>
        <lane id=":5852540829_1_2" index="2" disallow="tram rail_urban rail rail_electric rail_fast ship" speed="27.78" length="4.59" shape="484.64,1673.93 485.46,1672.89 485.73,1671.94 486.00,1671.00 486.85,1669.99"/>
        <lane id=":5852540829_1_3" index="3" disallow="tram rail_urban rail rail_electric rail_fast ship" speed="27.78" length="4.59" shape="486.75,1676.33 487.41,1675.42 487.56,1674.57 487.72,1673.73 488.41,1672.85"/>
        <lane id=":5852540829_1_4" index="4" disallow="tram rail_urban rail rail_electric rail_fast ship" speed="27.78" length="4.59" shape="488.86,1678.74 489.97,1675.70"/>
    </edge>
    <edge id=":6136872306_0" function="internal">
        <lane id=":6136872306_0_0" index="0" disallow="tram rail_urban rail rail_electric rail_fast ship" speed="27.78" length="3.00" shape="507.31,1679.75 505.05,1681.73"/>
        <lane id=":6136872306_0_1" index="1" disallow="tram rail_urban rail rail_electric rail_fast ship" speed="27.78" length="3.00" shape="505.20,1677.35 502.95,1679.32"/>
        <lane id=":6136872306_0_2" index="2" disallow="tram rail_urban rail rail_electric rail_fast ship" speed="27.78" length="3.00" shape="503.09,1674.94 500.84,1676.92"/>
    </edge>
    <edge id=":6136872306_3" function="internal">
        <lane id=":6136872306_3_0" index="0" disallow="tram rail_urban rail rail_electric rail_fast ship" speed="12.17" length="2.69" shape="508.86,1682.08 508.47,1682.78 508.15,1683.22 507.76,1683.61 507.16,1684.14"/>
    </edge>
    <edge id=":7891804268_0" function="internal">
        <lane id=":7891804268_0_0" index="0" disallow="tram rail_urban rail rail_electric rail_fast ship" speed="17.88" length="8.21" shape="1070.84,1200.77 1069.24,1202.57 1068.42,1204.05 1067.61,1205.54 1066.00,1207.34"/>
        <lane id=":7891804268_0_1" index="1" disallow="tram rail_urban rail rail_electric rail_fast ship" speed="17.88" length="8.21" shape="1068.68,1198.40 1067.08,1200.20 1066.27,1201.69 1065.45,1203.18 1063.85,1204.98"/>
        <lane id=":7891804268_0_2" index="2" disallow="tram rail_urban rail rail_electric rail_fast ship" speed="17.88" length="8.21" shape="1066.52,1196.04 1064.92,1197.84 1064.11,1199.33 1063.30,1200.81 1061.69,1202.61"/>
        <lane id=":7891804268_0_3" index="3" disallow="tram rail_urban rail rail_electric rail_fast ship" speed="17.88" length="8.21" shape="1066.52,1196.04 1064.59,1197.47 1063.03,1198.14 1061.48,1198.82 1059.54,1200.25"/>
    </edge>
    <edge id=":cluster_222541151_3902845427_0" function="internal">
        <lane id=":cluster_222541151_3902845427_0_0" index="0" disallow="tram rail_urban rail rail_electric rail_fast ship" speed="6.52" length="9.03" shape="1941.48,450.57 1939.61,448.95 1937.67,448.32 1935.66,448.66 1933.57,449.99"/>
    </edge>
    <edge id=":cluster_222541151_3902845427_1" function="internal">
        <lane id=":cluster_222541151_3902845427_1_0" index="0" disallow="tram rail_urban rail rail_electric rail_fast ship" speed="27.78" length="38.87" shape="1941.48,450.57 1916.18,421.06"/>
    </edge>
    <edge id=":cluster_222541151_3902845427_2" function="internal">
        <lane id=":cluster_222541151_3902845427_2_0" index="0" disallow="tram rail_urban rail rail_electric rail_fast ship" speed="11.01" length="11.17" shape="1941.48,450.57 1935.13,442.38 1934.75,441.67"/>
    </edge>
    <edge id=":cluster_222541151_3902845427_3" function="internal">
        <lane id=":cluster_222541151_3902845427_3_0" index="0" disallow="tram rail_urban rail rail_electric rail_fast ship" speed="3.65" length="1.44" shape="1941.48,450.57 1941.30,449.14"/>
    </edge>
    <edge id=":cluster_222541151_3902845427_22" function="internal">
        <lane id=":cluster_222541151_3902845427_22_0" index="0" disallow="tram rail_urban rail rail_electric rail_fast ship" speed="11.01" length="16.42" shape="1934.75,441.67 1931.57,435.65 1930.81,430.39 1932.86,426.60"/>
    </edge>
    <edge id=":cluster_222541151_3902845427_23" function="internal">
        <lane id=":cluster_222541151_3902845427_23_0" index="0" disallow="tram rail_urban rail rail_electric rail_fast ship" speed="3.65" length="3.23" shape="1941.30,449.14 1941.64,448.32 1942.51,448.09 1943.90,448.47"/>
    </edge>
    <edge id=":cluster_222541151_3902845427_4" function="internal">
        <lane id=":cluster_222541151_3902845427_4_0" index="0" disallow="tram rail_urban rail rail_electric rail_fast ship" speed="6.72" length="9.57" shape="1944.82,440.09 1943.04,442.17 1942.29,444.26 1942.58,446.36 1943.90,448.47"/>
    </edge>
    <edge id=":cluster_222541151_3902845427_5" function="internal">
        <lane id=":cluster_222541151_3902845427_5_0" index="0" disallow="tram rail_urban rail rail_electric rail_fast ship" speed="20.12" length="14.90" shape="1944.82,440.09 1933.57,449.99"/>
        <lane id=":cluster_222541151_3902845427_5_1" index="1" disallow="tram rail_urban rail rail_electric rail_fast ship" speed="20.12" length="14.90" shape="1942.70,437.70 1931.49,447.56"/>
        <lane id=":cluster_222541151_3902845427_5_2" index="2" disallow="tram rail_urban rail rail_electric rail_fast ship" speed="20.12" length="14.90" shape="1940.58,435.30 1929.41,445.13"/>
        <lane id=":cluster_222541151_3902845427_5_3" index="3" disallow="tram rail_urban rail rail_electric rail_fast ship" speed="20.12" length="14.90" shape="1938.45,432.91 1927.33,442.70"/>
    </edge>
    <edge id=":cluster_222541151_3902845427_9" function="internal">
        <lane id=":cluster_222541151_3902845427_9_0" index="0" disallow="tram rail_urban rail rail_electric rail_fast ship" speed="10.88" length="9.21" shape="1938.45,432.91 1934.60,434.38 1929.73,432.94"/>
    </edge>
    <edge id=":cluster_222541151_3902845427_10" function="internal">
        <lane id=":cluster_222541151_3902845427_10_0" index="0" disallow="tram rail_urban rail rail_electric rail_fast ship" speed="5.29" length="8.92" shape="1938.45,432.91 1934.69,433.43 1932.50,432.56 1931.89,430.28 1932.00,429.88"/>
    </edge>
    <edge id=":cluster_222541151_3902845427_24" function="internal">
        <lane id=":cluster_222541151_3902845427_24_0" index="0" disallow="tram rail_urban rail rail_electric rail_fast ship" speed="10.88" length="18.09" shape="1929.73,432.94 1929.61,432.90 1923.47,428.46 1916.18,421.06"/>
    </edge>
    <edge id=":cluster_222541151_3902845427_25" function="internal">
        <lane id=":cluster_222541151_3902845427_25_0" index="0" disallow="tram rail_urban rail rail_electric rail_fast ship" speed="5.29" length="3.39" shape="1932.00,429.88 1932.86,426.60"/>
    </edge>
    <edge id=":cluster_222541151_3902845427_11" function="internal">
        <lane id=":cluster_222541151_3902845427_11_0" index="0" disallow="tram rail_urban rail rail_electric rail_fast ship" speed="6.51" length="9.04" shape="1918.57,418.94 1920.46,420.55 1922.41,421.16 1924.42,420.79 1926.48,419.42"/>
    </edge>
    <edge id=":cluster_222541151_3902845427_12" function="internal">
        <lane id=":cluster_222541151_3902845427_12_0" index="0" disallow="tram rail_urban rail rail_electric rail_fast ship" speed="27.78" length="38.91" shape="1918.57,418.94 1943.90,448.47"/>
    </edge>
    <edge id=":cluster_222541151_3902845427_13" function="internal">
        <lane id=":cluster_222541151_3902845427_13_0" index="0" disallow="tram rail_urban rail rail_electric rail_fast ship" speed="10.89" length="11.71" shape="1918.57,418.94 1925.02,427.09 1925.65,428.25"/>
    </edge>
    <edge id=":cluster_222541151_3902845427_14" function="internal">
        <lane id=":cluster_222541151_3902845427_14_0" index="0" disallow="tram rail_urban rail rail_electric rail_fast ship" speed="3.65" length="1.44" shape="1918.57,418.94 1918.77,420.37"/>
    </edge>
    <edge id=":cluster_222541151_3902845427_26" function="internal">
        <lane id=":cluster_222541151_3902845427_26_0" index="0" disallow="tram rail_urban rail rail_electric rail_fast ship" speed="10.89" length="15.79" shape="1925.65,428.25 1928.63,433.77 1929.40,438.97 1927.33,442.70"/>
    </edge>
    <edge id=":cluster_222541151_3902845427_27" function="internal">
        <lane id=":cluster_222541151_3902845427_27_0" index="0" disallow="tram rail_urban rail rail_electric rail_fast ship" speed="3.65" length="3.23" shape="1918.77,420.37 1918.44,421.20 1917.57,421.43 1916.18,421.06"/>
    </edge>
    <edge id=":cluster_222541151_3902845427_15" function="internal">
        <lane id=":cluster_222541151_3902845427_15_0" index="0" disallow="tram rail_urban rail rail_electric rail_fast ship" speed="6.52" length="9.11" shape="1915.61,429.02 1917.25,427.11 1917.90,425.15 1917.54,423.13 1916.18,421.06"/>
    </edge>
    <edge id=":cluster_222541151_3902845427_16" function="internal">
        <lane id=":cluster_222541151_3902845427_16_0" index="0" disallow="tram rail_urban rail rail_electric rail_fast ship" speed="20.12" length="14.59" shape="1915.61,429.02 1926.48,419.42"/>
        <lane id=":cluster_222541151_3902845427_16_1" index="1" disallow="tram rail_urban rail rail_electric rail_fast ship" speed="20.12" length="14.59" shape="1917.70,431.45 1928.61,421.82"/>
        <lane id=":cluster_222541151_3902845427_16_2" index="2" disallow="tram rail_urban rail rail_electric rail_fast ship" speed="20.12" length="14.59" shape="1919.78,433.88 1930.73,424.21"/>
        <lane id=":cluster_222541151_3902845427_16_3" index="3" disallow="tram rail_urban rail rail_electric rail_fast ship" speed="20.12" length="14.59" shape="1921.86,436.31 1932.86,426.60"/>
    </edge>
    <edge id=":cluster_222541151_3902845427_20" function="internal">
        <lane id=":cluster_222541151_3902845427_20_0" index="0" disallow="tram rail_urban rail rail_electric rail_fast ship" speed="10.87" length="9.05" shape="1921.86,436.31 1925.68,434.93 1930.43,436.43"/>
    </edge>
    <edge id=":cluster_222541151_3902845427_21" function="internal">
        <lane id=":cluster_222541151_3902845427_21_0" index="0" disallow="tram rail_urban rail rail_electric rail_fast ship" speed="5.29" length="8.87" shape="1921.86,436.31 1925.62,435.86 1927.79,436.77 1928.35,439.05 1928.25,439.42"/>
    </edge>
    <edge id=":cluster_222541151_3902845427_28" function="internal">
        <lane id=":cluster_222541151_3902845427_28_0" index="0" disallow="tram rail_urban rail rail_electric rail_fast ship" speed="10.87" length="18.15" shape="1930.43,436.43 1930.63,436.49 1936.70,441.01 1943.90,448.47"/>
    </edge>