<?xml version="1.0" encoding="UTF-8"?>

<!-- generated on 2023-11-23 16:52:16 by Eclipse SUMO duarouter Version 1.19.0
<configuration xmlns:xsi="http://www.w3.org/2001/XMLSchema-instance" xsi:noNamespaceSchemaLocation="http://sumo.dlr.de/xsd/duarouterConfiguration.xsd">

    <input>
        <net-file value="nets/osm.net.xml"/>
        <route-files value="./nets/trips.trips.xml"/>
    </input>

    <output>
        <output-file value="routes.rou.xml"/>
    </output>

</configuration>
-->

<routes xmlns:xsi="http://www.w3.org/2001/XMLSchema-instance" xsi:noNamespaceSchemaLocation="http://sumo.dlr.de/xsd/routes_file.xsd">
    <vehicle id="0" depart="0.00">
        <route edges="430671832#0 430848086#0 1212185922#0 845899335 430287608 430287607#0 410092865#0 -486905456#2"/>
    </vehicle>
    <vehicle id="1" depart="1.00">
        <route edges="1212185923#0 845899337#0 1221220850 1212185894 430671835#0 430848086#0 1212185922#0"/>
    </vehicle>
    <vehicle id="2" depart="2.00">
        <route edges="430671836 228621811#0-AddedOnRampEdge 228621811#0 1212185895 410060082#1 430671832#0"/>
    </vehicle>
    <vehicle id="3" depart="3.00">
        <route edges="814741696#4 430287610#0 430671833#0 1212185923#0 845899337#0 1221220850 1212185894 430671835#0 1193299004#0 1193299004#2-AddedOnRampEdge"/>
    </vehicle>
    <vehicle id="4" depart="4.00">
        <route edges="398946754#0 398946751#0 845899337#0 1221220850 1212185894 430671835#0 1193299004#0"/>
    </vehicle>
    <vehicle id="5" depart="5.00">
        <route edges="1212185909 1212185908 430671836 228621811#0-AddedOnRampEdge 228621811#0 1212185895 410060082#1"/>
    </vehicle>
    <vehicle id="7" depart="7.00">
        <route edges="430671832#0 430848086#0 1212185922#0 845899335 430287608 430287607#0"/>
    </vehicle>
    <vehicle id="8" depart="8.00">
        <route edges="1212185909 1212185908 430848079#0 430848086#0 1212185922#0 845899335 430287608"/>
    </vehicle>
    <vehicle id="9" depart="9.00">
        <route edges="486905456#0 -486905456#2"/>
    </vehicle>
    <vehicle id="10" depart="10.00">
        <route edges="486905456#0 814741696#4 430287610#0 430671833#0"/>
    </vehicle>
    <vehicle id="11" depart="11.00">
        <route edges="228621811#0 1212185895"/>
    </vehicle>
    <vehicle id="12" depart="12.00">
        <route edges="845899335 430287608 430287607#0 410092865#0 814741696#4 430287610#0 430671833#0 1212185923#0 845899337#0 1221220850 1212185894 430671835#0 430671831#0 228621811#0-AddedOnRampEdge 228621811#0"/>
    </vehicle>
    <vehicle id="13" depart="13.00">
        <route edges="1193299004#2-AddedOnRampEdge"/>
    </vehicle>
    <vehicle id="15" depart="15.00">
        <route edges="486905456#0 814741696#4 430287610#0 430671833#0 1212185923#0 845899337#0 1221220850 1212185894 430671835#0"/>
    </vehicle>
    <vehicle id="16" depart="16.00">
        <route edges="430287607#0 410092865#0 895530326#1"/>
    </vehicle>
    <vehicle id="17" depart="17.00">
        <route edges="398946751#0 845899335 430287608 430287607#0"/>
    </vehicle>
    <vehicle id="19" depart="19.00">
        <route edges="814741696#0 814741696#4 430287610#0 430671833#0 1212185923#0 845899335 430287608"/>
    </vehicle>
    <vehicle id="20" depart="20.00">
        <route edges="430671835#0 1193299004#0"/>
    </vehicle>
    <vehicle id="21" depart="21.00">
        <route edges="1212185909 1212185908 430848079#0 430848086#0 1212185922#0 845899334#0 20726783#0"/>
    </vehicle>
    <vehicle id="24" depart="24.00">
        <route edges="430671832#0 430671831#0 228621811#0-AddedOnRampEdge"/>
    </vehicle>
    <vehicle id="25" depart="25.00">
        <route edges="228621811#0-AddedOnRampEdge 228621811#0 1212185895 410060082#1 430671832#0 430848086#0 1212185922#0"/>
    </vehicle>
    <vehicle id="26" depart="26.00">
        <route edges="1212185923#0 845899335"/>
    </vehicle>
    <vehicle id="27" depart="27.00">
        <route edges="430671832#0 430848086#0 1212185922#0 845899335 430287608 430287607#0 410092865#0 814741696#4 430287610#0"/>
    </vehicle>
    <vehicle id="28" depart="28.00">
        <route edges="1212185895 410060082#1 430671832#0 430848086#0 1212185922#0 845899337#0 1221220850 1212185894 430671835#0"/>
    </vehicle>
    <vehicle id="29" depart="29.00">
        <route edges="1212185895 410060082#1 430671832#0 430671831#0 228621811#0-AddedOnRampEdge 228621811#0 228621811#1"/>
    </vehicle>
    <vehicle id="30" depart="30.00">
        <route edges="845899337#0 1221220850 1212185894 430671835#0 430671831#0"/>
    </vehicle>
    <vehicle id="31" depart="31.00">
        <route edges="430287608 430287607#0 410092865#0 814741696#4 430287610#0 430671833#0 1212185923#0 845899337#0 1221220850 1212185894 430671835#0 430671831#0 228621811#0-AddedOnRampEdge 228621811#0 1212185895 410060082#1 430671832#0"/>
    </vehicle>
    <vehicle id="33" depart="33.00">
        <route edges="1212185922#0 845899337#0 1221220850 1212185894 430671835#0 1193299004#0"/>
    </vehicle>
    <vehicle id="34" depart="34.00">
        <route edges="228621811#0 1212185895 410060082#1 430671832#0 430848086#0 1212185922#0 845899337#0 1221220850"/>
    </vehicle>
    <vehicle id="35" depart="35.00">
        <route edges="1212185909 1212185908 430848079#0 430848086#0 1212185922#0 845899337#0"/>
    </vehicle>
    <vehicle id="36" depart="36.00">
        <route edges="814741696#0 814741696#4 430287610#0 430671833#0 1212185923#0 845899337#0 1221220850 1212185894 430671835#0 430671831#0 228621811#0-AddedOnRampEdge 228621811#0"/>
    </vehicle>
    <vehicle id="37" depart="37.00">
        <route edges="430671832#0 430671831#0 228621811#0-AddedOnRampEdge 228621811#0 228621811#1"/>
    </vehicle>
    <vehicle id="38" depart="38.00">
        <route edges="845899334#0 20726783#0 -429556372#1 398946754#0 398946751#0 845899335 430287608 407799856"/>
    </vehicle>
    <vehicle id="39" depart="39.00">
        <route edges="1212185923#0"/>
    </vehicle>
    <vehicle id="40" depart="40.00">
        <route edges="430287608 430287607#0 410092865#0 814741696#4 430287610#0 430671833#0 1212185923#0 845899337#0 1221220850"/>
    </vehicle>
    <vehicle id="41" depart="41.00">
        <route edges="430287610#0 430671833#0 1212185923#0 845899334#0"/>
    </vehicle>
    <vehicle id="42" depart="42.00">
        <route edges="398946751#0 845899337#0 1221220850 1212185894 430671835#0 430848086#0 1212185922#0"/>
    </vehicle>
    <vehicle id="43" depart="43.00">
        <route edges="845899337#0 1221220850 1212185894 430671835#0 430671831#0 228621811#0-AddedOnRampEdge 228621811#0 1212185895 410060082#1"/>
    </vehicle>
    <vehicle id="46" depart="46.00">
        <route edges="430848086#0 1212185922#0 845899334#0 20726783#0 -429556372#1 398946754#0 398946751#0"/>
    </vehicle>
    <vehicle id="48" depart="48.00">
        <route edges="845899337#0 1221220850 1212185894 430671835#0 430848086#0 1212185922#0 845899335 430287608 430287607#0 410092865#0"/>
    </vehicle>
    <vehicle id="49" depart="49.00">
        <route edges="845899335 430287608 430287607#0 410092865#0 814741696#4"/>
    </vehicle>
    <vehicle id="50" depart="50.00">
        <route edges="-429556372#1 398946754#0 398946751#0 845899337#0 1221220850 1212185894 430671835#0"/>
    </vehicle>
    <vehicle id="51" depart="51.00">
        <route edges="430671833#0 1212185923#0 845899335 430287608 430287607#0 410092865#0"/>
    </vehicle>
    <vehicle id="52" depart="52.00">
        <route edges="1212185923#0 845899337#0 1221220850 1212185894 430671835#0 430671831#0"/>
    </vehicle>
    <vehicle id="54" depart="54.00">
        <route edges="410060082#0 410060082#1 430671832#0 430848086#0 1212185922#0 845899337#0"/>
    </vehicle>
    <vehicle id="55" depart="55.00">
        <route edges="814741696#0 814741696#4 430287610#0 430671833#0 1212185923#0 845899337#0 1221220850"/>
    </vehicle>
    <vehicle id="57" depart="57.00">
        <route edges="814741696#4"/>
    </vehicle>
    <vehicle id="58" depart="58.00">
        <route edges="1221220850 1212185894 430671835#0 430671831#0"/>
    </vehicle>
    <vehicle id="59" depart="59.00">
        <route edges="430671831#0 228621811#0-AddedOnRampEdge 228621811#0 1212185895"/>
    </vehicle>
    <vehicle id="60" depart="60.00">
        <route edges="430848079#0 430848086#0 1212185922#0 845899335 430287608 430287607#0 410092865#0"/>
    </vehicle>
    <vehicle id="61" depart="61.00">
        <route edges="430848086#0 1212185922#0 845899335 430287608 430287607#0 410092865#0"/>
    </vehicle>
    <vehicle id="62" depart="62.00">
        <route edges="-429556372#1 398946754#0 398946751#0 845899337#0 1221220850 1212185894 430671835#0 430671831#0 228621811#0-AddedOnRampEdge 228621811#0"/>
    </vehicle>
    <vehicle id="63" depart="63.00">
        <route edges="-429556372#1 398946754#0 398946751#0 845899335"/>
    </vehicle>
    <vehicle id="64" depart="64.00">
        <route edges="814741696#0 814741694#0"/>
    </vehicle>
    <vehicle id="65" depart="65.00">
        <route edges="1221220850 1212185894 430671835#0 1193299004#0 1193299004#2-AddedOnRampEdge 1193299004#2"/>
    </vehicle>
    <vehicle id="66" depart="66.00">
        <route edges="814741696#0 814741696#4 430287610#0 430671833#0 1212185923#0 845899337#0"/>
    </vehicle>
    <vehicle id="69" depart="69.00">
        <route edges="430848079#0 430848086#0 1212185922#0 845899337#0 1221220850 1212185894"/>
    </vehicle>
    <vehicle id="70" depart="70.00">
        <route edges="410060082#1 430671832#0 430848086#0 1212185922#0 845899335 430287608 430287607#0"/>
    </vehicle>
    <vehicle id="71" depart="71.00">
        <route edges="1212185923#0 845899335 430287608 430287607#0 410092865#0 814741696#4"/>
    </vehicle>
    <vehicle id="72" depart="72.00">
        <route edges="398946754#0 398946751#0 845899337#0 1221220850 1212185894 430671835#0 430848086#0 1212185922#0"/>
    </vehicle>
    <vehicle id="73" depart="73.00">
        <route edges="430287607#0 410092865#0 814741696#4 430287610#0 430671833#0 1212185923#0 845899337#0 1221220850 1212185894 430671835#0"/>
    </vehicle>
    <vehicle id="74" depart="74.00">
        <route edges="1212185909 1212185908 430848079#0 430848086#0 1212185922#0 845899334#0 20726783#0"/>
    </vehicle>
    <vehicle id="75" depart="75.00">
        <route edges="845899337#0 1221220850 1212185894 430671835#0 430671831#0"/>
    </vehicle>
    <vehicle id="76" depart="76.00">
        <route edges="410060082#0 410060082#1 430671832#0 430848086#0 1212185922#0 845899335 430287608 430287607#0 410092865#0"/>
    </vehicle>
    <vehicle id="77" depart="77.00">
        <route edges="1212185894 430671835#0 430848086#0 1212185922#0"/>
    </vehicle>
    <vehicle id="78" depart="78.00">
        <route edges="228621811#0 1212185895 410060082#1 430671832#0 430848086#0 1212185922#0 845899335 430287608"/>
    </vehicle>
    <vehicle id="79" depart="79.00">
        <route edges="1212185922#0"/>
    </vehicle>
    <vehicle id="81" depart="81.00">
        <route edges="1212185922#0 845899334#0"/>
    </vehicle>
    <vehicle id="82" depart="82.00">
        <route edges="814741696#0 814741696#4 430287610#0 430671833#0 1212185923#0 845899337#0 1221220850 1212185894 430671835#0 1193299004#0 1193299004#2-AddedOnRampEdge 1193299004#2"/>
    </vehicle>
    <vehicle id="83" depart="83.00">
        <route edges="1212185922#0 845899337#0 1221220850 1212185894 430671835#0 430671831#0 228621811#0-AddedOnRampEdge 228621811#0 1212185895 410060082#1 430671832#0"/>
    </vehicle>
    <vehicle id="84" depart="84.00">
        <route edges="1212185909 1212185908 430848079#0 430848086#0 1212185922#0 845899337#0 1221220850 1212185894"/>
    </vehicle>
    <vehicle id="85" depart="85.00">
        <route edges="845899334#0 20726783#0 -429556372#1 398946754#0 398946751#0 845899335 430287608 430287607#0"/>
    </vehicle>
    <vehicle id="89" depart="89.00">
        <route edges="398946754#0 398946751#0 845899335 430287608 407799856"/>
    </vehicle>
    <vehicle id="90" depart="90.00">
        <route edges="430671836 228621811#0-AddedOnRampEdge 228621811#0 1212185895 410060082#1 430671832#0"/>
    </vehicle>
    <vehicle id="91" depart="91.00">
        <route edges="845899337#0 1221220850 1212185894 430671835#0 1193299004#0 1193299004#2-AddedOnRampEdge"/>
    </vehicle>
    <vehicle id="92" depart="92.00">
        <route edges="398946754#0 398946751#0 845899337#0 1221220850 1212185894 430671835#0 430671831#0 228621811#0-AddedOnRampEdge 228621811#0"/>
    </vehicle>
    <vehicle id="93" depart="93.00">
        <route edges="814741696#0 814741696#4 430287610#0 430671833#0 1212185923#0"/>
    </vehicle>
    <vehicle id="94" depart="94.00">
        <route edges="1212185908 430848079#0 430848086#0 1212185922#0 845899334#0 20726783#0 -429556372#1 398946754#0"/>
    </vehicle>
    <vehicle id="95" depart="95.00">
        <route edges="398946754#0 398946751#0 845899337#0 1221220850"/>
    </vehicle>
    <vehicle id="96" depart="96.00">
        <route edges="1212185922#0 845899335"/>
    </vehicle>
    <vehicle id="97" depart="97.00">
        <route edges="410060082#0 410060082#1 430671832#0 430848086#0 1212185922#0 845899335 430287608 430287607#0 410092865#0 814741696#4"/>
    </vehicle>
    <vehicle id="98" depart="98.00">
        <route edges="430287608 430287607#0 410092865#0 814741696#4 430287610#0 430671833#0 1212185923#0 845899337#0 1221220850 1212185894 430671835#0 1193299004#0"/>
    </vehicle>
    <vehicle id="99" depart="99.00">
        <route edges="845899337#0 1221220850 1212185894 430671835#0 430848086#0 1212185922#0 845899335 430287608 430287607#0 410092865#0 814741694#0"/>
    </vehicle>
</routes>
