<?xml version="1.0" encoding="UTF-8"?>

<!-- generated on 2023-11-23 16:46:56.212421 by randomTrips.py v1_19_0+0216-f9b6e685596
<configuration>
    <net-file value="./nets/osm.net.xml"/>
    <end value="100.0"/>
    <period value="1.0"/>
</configuration>
-->

<routes xmlns:xsi="http://www.w3.org/2001/XMLSchema-instance" xsi:noNamespaceSchemaLocation="http://sumo.dlr.de/xsd/routes_file.xsd">
    <trip id="0" depart="0.00" from="430671832#0" to="-486905456#2"/>
    <trip id="1" depart="1.00" from="1212185923#0" to="1212185922#0"/>
    <trip id="2" depart="2.00" from="430671836" to="430671832#0"/>
    <trip id="3" depart="3.00" from="814741696#4" to="1193299004#2-AddedOnRampEdge"/>
    <trip id="4" depart="4.00" from="398946754#0" to="1193299004#0"/>
    <trip id="5" depart="5.00" from="1212185909" to="410060082#1"/>
    <trip id="7" depart="7.00" from="430671832#0" to="430287607#0"/>
    <trip id="8" depart="8.00" from="1212185909" to="430287608"/>
    <trip id="9" depart="9.00" from="486905456#0" to="-486905456#2"/>
    <trip id="10" depart="10.00" from="486905456#0" to="430671833#0"/>
    <trip id="11" depart="11.00" from="228621811#0" to="1212185895"/>
    <trip id="12" depart="12.00" from="845899335" to="228621811#0"/>
    <trip id="13" depart="13.00" from="1193299004#2-AddedOnRampEdge" to="1193299004#2-AddedOnRampEdge"/>
    <trip id="15" depart="15.00" from="486905456#0" to="430671835#0"/>
    <trip id="16" depart="16.00" from="430287607#0" to="895530326#1"/>
    <trip id="17" depart="17.00" from="398946751#0" to="430287607#0"/>
    <trip id="19" depart="19.00" from="814741696#0" to="430287608"/>
    <trip id="20" depart="20.00" from="430671835#0" to="1193299004#0"/>
    <trip id="21" depart="21.00" from="1212185909" to="20726783#0"/>
    <trip id="24" depart="24.00" from="430671832#0" to="228621811#0-AddedOnRampEdge"/>
    <trip id="25" depart="25.00" from="228621811#0-AddedOnRampEdge" to="1212185922#0"/>
    <trip id="26" depart="26.00" from="1212185923#0" to="845899335"/>
    <trip id="27" depart="27.00" from="430671832#0" to="430287610#0"/>
    <trip id="28" depart="28.00" from="1212185895" to="430671835#0"/>
    <trip id="29" depart="29.00" from="1212185895" to="228621811#1"/>
    <trip id="30" depart="30.00" from="845899337#0" to="430671831#0"/>
    <trip id="31" depart="31.00" from="430287608" to="430671832#0"/>
    <trip id="33" depart="33.00" from="1212185922#0" to="1193299004#0"/>
    <trip id="34" depart="34.00" from="228621811#0" to="1221220850"/>
    <trip id="35" depart="35.00" from="1212185909" to="845899337#0"/>
    <trip id="36" depart="36.00" from="814741696#0" to="228621811#0"/>
    <trip id="37" depart="37.00" from="430671832#0" to="228621811#1"/>
    <trip id="38" depart="38.00" from="845899334#0" to="407799856"/>
    <trip id="39" depart="39.00" from="1212185923#0" to="1212185923#0"/>
    <trip id="40" depart="40.00" from="430287608" to="1221220850"/>
    <trip id="41" depart="41.00" from="430287610#0" to="845899334#0"/>
    <trip id="42" depart="42.00" from="398946751#0" to="1212185922#0"/>
    <trip id="43" depart="43.00" from="845899337#0" to="410060082#1"/>
    <trip id="46" depart="46.00" from="430848086#0" to="398946751#0"/>
    <trip id="48" depart="48.00" from="845899337#0" to="410092865#0"/>
    <trip id="49" depart="49.00" from="845899335" to="814741696#4"/>
    <trip id="50" depart="50.00" from="-429556372#1" to="430671835#0"/>
    <trip id="51" depart="51.00" from="430671833#0" to="410092865#0"/>
    <trip id="52" depart="52.00" from="1212185923#0" to="430671831#0"/>
    <trip id="54" depart="54.00" from="410060082#0" to="845899337#0"/>
    <trip id="55" depart="55.00" from="814741696#0" to="1221220850"/>
    <trip id="57" depart="57.00" from="814741696#4" to="814741696#4"/>
    <trip id="58" depart="58.00" from="1221220850" to="430671831#0"/>
    <trip id="59" depart="59.00" from="430671831#0" to="1212185895"/>
    <trip id="60" depart="60.00" from="430848079#0" to="410092865#0"/>
    <trip id="61" depart="61.00" from="430848086#0" to="410092865#0"/>
    <trip id="62" depart="62.00" from="-429556372#1" to="228621811#0"/>
    <trip id="63" depart="63.00" from="-429556372#1" to="845899335"/>
    <trip id="64" depart="64.00" from="814741696#0" to="814741694#0"/>
    <trip id="65" depart="65.00" from="1221220850" to="1193299004#2"/>
    <trip id="66" depart="66.00" from="814741696#0" to="845899337#0"/>
    <trip id="69" depart="69.00" from="430848079#0" to="1212185894"/>
    <trip id="70" depart="70.00" from="410060082#1" to="430287607#0"/>
    <trip id="71" depart="71.00" from="1212185923#0" to="814741696#4"/>
    <trip id="72" depart="72.00" from="398946754#0" to="1212185922#0"/>
    <trip id="73" depart="73.00" from="430287607#0" to="430671835#0"/>
    <trip id="74" depart="74.00" from="1212185909" to="20726783#0"/>
    <trip id="75" depart="75.00" from="845899337#0" to="430671831#0"/>
    <trip id="76" depart="76.00" from="410060082#0" to="410092865#0"/>
    <trip id="77" depart="77.00" from="1212185894" to="1212185922#0"/>
    <trip id="78" depart="78.00" from="228621811#0" to="430287608"/>
    <trip id="79" depart="79.00" from="1212185922#0" to="1212185922#0"/>
    <trip id="81" depart="81.00" from="1212185922#0" to="845899334#0"/>
    <trip id="82" depart="82.00" from="814741696#0" to="1193299004#2"/>
    <trip id="83" depart="83.00" from="1212185922#0" to="430671832#0"/>
    <trip id="84" depart="84.00" from="1212185909" to="1212185894"/>
    <trip id="85" depart="85.00" from="845899334#0" to="430287607#0"/>
    <trip id="89" depart="89.00" from="398946754#0" to="407799856"/>
    <trip id="90" depart="90.00" from="430671836" to="430671832#0"/>
    <trip id="91" depart="91.00" from="845899337#0" to="1193299004#2-AddedOnRampEdge"/>
    <trip id="92" depart="92.00" from="398946754#0" to="228621811#0"/>
    <trip id="93" depart="93.00" from="814741696#0" to="1212185923#0"/>
    <trip id="94" depart="94.00" from="1212185908" to="398946754#0"/>
    <trip id="95" depart="95.00" from="398946754#0" to="1221220850"/>
    <trip id="96" depart="96.00" from="1212185922#0" to="845899335"/>
    <trip id="97" depart="97.00" from="410060082#0" to="814741696#4"/>
    <trip id="98" depart="98.00" from="430287608" to="1193299004#0"/>
    <trip id="99" depart="99.00" from="845899337#0" to="814741694#0"/>
</routes>
