<?xml version="1.0" encoding="UTF-8"?>

<!-- generated on 2023-11-22 18:57:52.398856 by osmWebWizard.py v1_18_0+0000-03ecfdea036
<configuration>
    <net-file value="D:\2023-11-22-18-57-42\osm.net.xml.gz"/>
    <output-trip-file value="D:\2023-11-22-18-57-42\osm.passenger.trips.xml"/>
    <route-file value="D:\2023-11-22-18-57-42\osm.passenger.rou.xml"/>
    <prefix value="veh"/>
    <trip-attributes value="departLane=&quot;best&quot;"/>
    <fringe-start-attributes value="departSpeed=&quot;max&quot;"/>
    <vehicle-class value="passenger"/>
    <lanes value="True"/>
    <fringe-factor value="5"/>
    <allow-fringe.min-length value="1000.0"/>
    <via-edge-types value="highway.motorway,highway.motorway_link,highway.trunk_link,highway.primary_link,highway.secondary_link,highway.tertiary_link"/>
    <min-distance value="300.0"/>
    <min-distance.fringe value="10.0"/>
    <remove-loops value="True"/>
    <validate value="True"/>
    <insertion-density value="20.0"/>
</configuration>
-->

<!-- generated on 2023-11-22 18:57:51 by Eclipse SUMO duarouter Version 1.18.0
<configuration xmlns:xsi="http://www.w3.org/2001/XMLSchema-instance" xsi:noNamespaceSchemaLocation="http://sumo.dlr.de/xsd/duarouterConfiguration.xsd">

    <input>
        <net-file value="D:\2023-11-22-18-57-42\osm.net.xml.gz"/>
        <route-files value="D:\2023-11-22-18-57-42\osm.passenger.trips.xml"/>
    </input>

    <output>
        <output-file value="D:\2023-11-22-18-57-42\osm.passenger.trips.xml.tmp"/>
        <alternatives-output value="NUL"/>
        <write-trips value="true"/>
    </output>

    <processing>
        <remove-loops value="true"/>
    </processing>

    <time>
        <begin value="0.0"/>
        <end value="3600.0"/>
    </time>

    <report>
        <no-warnings value="true"/>
        <ignore-errors value="true"/>
        <no-step-log value="true"/>
    </report>

</configuration>
-->

<routes xmlns:xsi="http://www.w3.org/2001/XMLSchema-instance" xsi:noNamespaceSchemaLocation="http://sumo.dlr.de/xsd/routes_file.xsd">
    <vType id="veh_passenger" vClass="passenger"/>
    <trip id="veh0" type="veh_passenger" depart="0.00" departLane="best" from="20722888#1" to="-1190362129#1"/>
    <trip id="veh1" type="veh_passenger" depart="0.79" departLane="best" departSpeed="max" from="-429556816" to="-20731705#3"/>
    <trip id="veh2" type="veh_passenger" depart="1.58" departLane="best" from="20729480#1" to="20725240#6"/>
    <trip id="veh3" type="veh_passenger" depart="2.37" departLane="best" from="431483783#3" to="20721104#1"/>
    <trip id="veh5" type="veh_passenger" depart="3.95" departLane="best" from="20729922#1" to="1221220839#0"/>
    <trip id="veh6" type="veh_passenger" depart="4.74" departLane="best" from="-1191598297#0" to="20729659#3"/>
    <trip id="veh7" type="veh_passenger" depart="5.53" departLane="best" from="20723606#2" to="20719348#4"/>
    <trip id="veh8" type="veh_passenger" depart="6.32" departLane="best" departSpeed="max" from="-20730161#3" to="20721379"/>
    <trip id="veh9" type="veh_passenger" depart="7.11" departLane="best" departSpeed="max" from="269259169#0" to="-1058124820#3"/>
    <trip id="veh10" type="veh_passenger" depart="7.90" departLane="best" from="244333699#1" to="20727618#0"/>
    <trip id="veh11" type="veh_passenger" depart="8.69" departLane="best" from="1191558401" to="-20726401#3"/>
    <trip id="veh12" type="veh_passenger" depart="9.48" departLane="best" from="747369480" to="1077200899#3"/>
    <trip id="veh13" type="veh_passenger" depart="10.27" departLane="best" departSpeed="max" from="-20721379" to="-20721950#2"/>
    <trip id="veh14" type="veh_passenger" depart="11.06" departLane="best" from="408302604#2" to="20722000#4"/>
    <trip id="veh15" type="veh_passenger" depart="11.85" departLane="best" from="260840280#3" to="20729411#13"/>
    <trip id="veh16" type="veh_passenger" depart="12.64" departLane="best" from="1221252195#0" to="895512175#0"/>
    <trip id="veh17" type="veh_passenger" depart="13.43" departLane="best" from="1151938898" to="20719641#13"/>
    <trip id="veh18" type="veh_passenger" depart="14.22" departLane="best" from="408302579#0" to="-20722317#1"/>
    <trip id="veh19" type="veh_passenger" depart="15.01" departLane="best" from="415318249#1" to="-20721060#3"/>
    <trip id="veh20" type="veh_passenger" depart="15.80" departLane="best" from="20727620#0" to="199695497#2"/>
    <trip id="veh21" type="veh_passenger" depart="16.59" departLane="best" departSpeed="max" from="-20730452#1" to="-895449587#0"/>
    <trip id="veh22" type="veh_passenger" depart="17.38" departLane="best" from="20720487#1" to="-269259169#0"/>
    <trip id="veh23" type="veh_passenger" depart="18.17" departLane="best" from="-20721873#1" to="-621514180#0"/>
    <trip id="veh24" type="veh_passenger" depart="18.96" departLane="best" from="-20732052#6" to="1190362126#2"/>
    <trip id="veh25" type="veh_passenger" depart="19.75" departLane="best" departSpeed="max" from="1136289376#0" to="-20730217#0"/>
    <trip id="veh26" type="veh_passenger" depart="20.54" departLane="best" from="20730843#1" to="-582400540#2"/>
    <trip id="veh27" type="veh_passenger" depart="21.33" departLane="best" from="20723368#4" to="20722080#1"/>
    <trip id="veh28" type="veh_passenger" depart="22.12" departLane="best" from="20726401#3" to="20729411#13"/>
    <trip id="veh29" type="veh_passenger" depart="22.91" departLane="best" departSpeed="max" from="-20725791#1" to="1190524910#0"/>
    <trip id="veh30" type="veh_passenger" depart="23.70" departLane="best" from="896491448#0" to="20723368#6"/>
    <trip id="veh31" type="veh_passenger" depart="24.49" departLane="best" from="-20717274#1" to="20726357#2"/>
    <trip id="veh32" type="veh_passenger" depart="25.28" departLane="best" departSpeed="max" from="408302604#0" to="20731549#1"/>
    <trip id="veh33" type="veh_passenger" depart="26.07" departLane="best" departSpeed="max" from="-20730452#1" to="-1191598297#6"/>
    <trip id="veh34" type="veh_passenger" depart="26.86" departLane="best" from="-627030713#5" to="-582400465#5"/>
    <trip id="veh35" type="veh_passenger" depart="27.65" departLane="best" departSpeed="max" from="-20729411#13" to="620674933#5"/>
    <trip id="veh36" type="veh_passenger" depart="28.44" departLane="best" from="430288771" to="1027502856#1-AddedOnRampEdge"/>
    <trip id="veh37" type="veh_passenger" depart="29.23" departLane="best" from="20723754#9" to="1193298989#2"/>
    <trip id="veh38" type="veh_passenger" depart="30.02" departLane="best" from="45860804#0" to="1212185887"/>
    <trip id="veh39" type="veh_passenger" depart="30.81" departLane="best" departSpeed="max" from="-319032717#5" to="-429798638#5"/>
    <trip id="veh40" type="veh_passenger" depart="31.60" departLane="best" from="20718514#1" to="-487482849#6"/>
    <trip id="veh41" type="veh_passenger" depart="32.39" departLane="best" from="20720424#0" to="431114753#1"/>
    <trip id="veh42" type="veh_passenger" depart="33.18" departLane="best" from="1190524903#4" to="20731695#2"/>
    <trip id="veh44" type="veh_passenger" depart="34.76" departLane="best" from="-20721211#5" to="20724910#2"/>
    <trip id="veh45" type="veh_passenger" depart="35.55" departLane="best" from="-20722147#1" to="20722616#6"/>
    <trip id="veh46" type="veh_passenger" depart="36.34" departLane="best" departSpeed="max" from="228621544#0" to="1206051959"/>
    <trip id="veh47" type="veh_passenger" depart="37.13" departLane="best" departSpeed="max" from="-20719641#16" to="1191558397#2"/>
    <trip id="veh48" type="veh_passenger" depart="37.92" departLane="best" from="896491451#3" to="20714413#0"/>
    <trip id="veh50" type="veh_passenger" depart="39.50" departLane="best" from="-1077547963#0" to="-20728903#1"/>
    <trip id="veh51" type="veh_passenger" depart="40.29" departLane="best" from="-20725794#2" to="20718477#0"/>
    <trip id="veh52" type="veh_passenger" depart="41.08" departLane="best" from="407788578#0" to="20723460"/>
    <trip id="veh53" type="veh_passenger" depart="41.87" departLane="best" from="20722464#2" to="1209238775#0"/>
    <trip id="veh54" type="veh_passenger" depart="42.66" departLane="best" from="1209238775#1" to="627030713#5"/>
    <trip id="veh55" type="veh_passenger" depart="43.45" departLane="best" from="429801029#0" to="-487482849#8"/>
    <trip id="veh56" type="veh_passenger" depart="44.24" departLane="best" from="1212185907#1" to="-20728219#1"/>
    <trip id="veh57" type="veh_passenger" depart="45.03" departLane="best" from="45837836#9" to="429556697#4"/>
    <trip id="veh58" type="veh_passenger" depart="45.82" departLane="best" from="-582400465#0" to="20723368#3"/>
    <trip id="veh59" type="veh_passenger" depart="46.61" departLane="best" from="-20721589" to="-20725930#3"/>
    <trip id="veh60" type="veh_passenger" depart="47.40" departLane="best" from="20730759#0" to="20718859"/>
    <trip id="veh61" type="veh_passenger" depart="48.19" departLane="best" from="-20731705#3" to="-20717274#2"/>
    <trip id="veh62" type="veh_passenger" depart="48.98" departLane="best" from="1012222977#0" to="1027502889#0"/>
    <trip id="veh63" type="veh_passenger" depart="49.77" departLane="best" from="-1190362126#1" to="582400446#0"/>
    <trip id="veh64" type="veh_passenger" depart="50.56" departLane="best" from="430671832#1" to="408302579#0"/>
    <trip id="veh65" type="veh_passenger" depart="51.35" departLane="best" from="-620674933#6" to="-20719391#1"/>
    <trip id="veh66" type="veh_passenger" depart="52.14" departLane="best" from="1212185890" to="621514183#2"/>
    <trip id="veh67" type="veh_passenger" depart="52.93" departLane="best" from="20721060#3" to="1212185916#1"/>
    <trip id="veh68" type="veh_passenger" depart="53.72" departLane="best" from="20719765#4" to="20730452#1"/>
    <trip id="veh69" type="veh_passenger" depart="54.51" departLane="best" from="20731516#3" to="-20724139#2"/>
    <trip id="veh70" type="veh_passenger" depart="55.30" departLane="best" from="1153603962#2" to="20719590"/>
    <trip id="veh71" type="veh_passenger" depart="56.09" departLane="best" departSpeed="max" from="-319032717#5" to="429798637#2"/>
    <trip id="veh72" type="veh_passenger" depart="56.88" departLane="best" from="1193299003#3" to="20731456#0"/>
    <trip id="veh73" type="veh_passenger" depart="57.67" departLane="best" departSpeed="max" from="136806735#0" to="20729411#13"/>
    <trip id="veh74" type="veh_passenger" depart="58.46" departLane="best" departSpeed="max" from="-20728776" to="1027502856#0"/>
    <trip id="veh75" type="veh_passenger" depart="59.25" departLane="best" from="895512181#2" to="20723931#4"/>
    <trip id="veh76" type="veh_passenger" depart="60.04" departLane="best" from="1204455594#3" to="143906219"/>
    <trip id="veh77" type="veh_passenger" depart="60.83" departLane="best" departSpeed="max" from="-20722984#1" to="-20732052#2"/>
    <trip id="veh78" type="veh_passenger" depart="61.62" departLane="best" from="1027502854#4" to="20721214#5"/>
    <trip id="veh79" type="veh_passenger" depart="62.41" departLane="best" from="20730743#2" to="-20731702#1"/>
    <trip id="veh80" type="veh_passenger" depart="63.20" departLane="best" departSpeed="max" from="-20719820" to="20722940#4"/>
    <trip id="veh81" type="veh_passenger" depart="63.99" departLane="best" departSpeed="max" from="-20730452#1" to="45827831#4"/>
    <trip id="veh83" type="veh_passenger" depart="65.57" departLane="best" from="-20731549#1" to="20724621"/>
    <trip id="veh84" type="veh_passenger" depart="66.36" departLane="best" from="20729659#1" to="-20724142#5"/>
    <trip id="veh85" type="veh_passenger" depart="67.15" departLane="best" from="620640669#1" to="20720424#1"/>
    <trip id="veh86" type="veh_passenger" depart="67.94" departLane="best" from="1193298987#3" to="20731705#0"/>
    <trip id="veh87" type="veh_passenger" depart="68.73" departLane="best" from="260840336#1" to="20728987#0"/>
    <trip id="veh88" type="veh_passenger" depart="69.52" departLane="best" from="-20721702#3" to="1209238771#2"/>
    <trip id="veh89" type="veh_passenger" depart="70.31" departLane="best" from="1193299003#3" to="1212185900"/>
    <trip id="veh90" type="veh_passenger" depart="71.10" departLane="best" from="20729135#1" to="20724910#7"/>
    <trip id="veh91" type="veh_passenger" depart="71.89" departLane="best" from="895523422#2" to="-20722000#3"/>
    <trip id="veh92" type="veh_passenger" depart="72.68" departLane="best" from="1190524911#2" to="1209238771#0"/>
    <trip id="veh93" type="veh_passenger" depart="73.47" departLane="best" from="415318249#1" to="431114753#1"/>
    <trip id="veh94" type="veh_passenger" depart="74.26" departLane="best" from="-20727804#0" to="1209238786#1"/>
    <trip id="veh95" type="veh_passenger" depart="75.05" departLane="best" from="1193299003#2" to="-621514180#1"/>
    <trip id="veh96" type="veh_passenger" depart="75.84" departLane="best" from="-20732052#6" to="-45883891#2"/>
    <trip id="veh98" type="veh_passenger" depart="77.42" departLane="best" from="165499781#3" to="-20718240#0"/>
    <trip id="veh99" type="veh_passenger" depart="78.21" departLane="best" from="988506882#2" to="408302583#1"/>
    <trip id="veh100" type="veh_passenger" depart="79.00" departLane="best" departSpeed="max" from="895449587#0" to="-487482849#7"/>
    <trip id="veh101" type="veh_passenger" depart="79.79" departLane="best" from="408302604#3" to="-20727478#0"/>
    <trip id="veh102" type="veh_passenger" depart="80.58" departLane="best" from="1212185889" to="-20731516#3"/>
    <trip id="veh103" type="veh_passenger" depart="81.37" departLane="best" from="1190524910#2" to="20719391#3"/>
    <trip id="veh104" type="veh_passenger" depart="82.16" departLane="best" departSpeed="max" from="-319032717#5" to="20731702#7"/>
    <trip id="veh105" type="veh_passenger" depart="82.95" departLane="best" from="1209238775#1" to="1209238762"/>
    <trip id="veh106" type="veh_passenger" depart="83.74" departLane="best" from="747369480" to="896491451#2"/>
    <trip id="veh107" type="veh_passenger" depart="84.53" departLane="best" from="199695499#0" to="20728554"/>
    <trip id="veh108" type="veh_passenger" depart="85.32" departLane="best" from="20724650" to="-895512176#0"/>
    <trip id="veh109" type="veh_passenger" depart="86.11" departLane="best" departSpeed="max" from="895449587#0" to="20721104#2"/>
    <trip id="veh110" type="veh_passenger" depart="86.90" departLane="best" from="143906219" to="20729860#7"/>
    <trip id="veh111" type="veh_passenger" depart="87.69" departLane="best" from="-20719391#1" to="-20721211#3"/>
    <trip id="veh112" type="veh_passenger" depart="88.48" departLane="best" from="1193299004#3" to="408302604#5"/>
    <trip id="veh113" type="veh_passenger" depart="89.27" departLane="best" from="-20724910#5" to="747369480"/>
    <trip id="veh114" type="veh_passenger" depart="90.06" departLane="best" from="20720487#2" to="-20728903#0"/>
    <trip id="veh115" type="veh_passenger" depart="90.85" departLane="best" departSpeed="max" from="20721060#0" to="20725240#2"/>
    <trip id="veh116" type="veh_passenger" depart="91.64" departLane="best" departSpeed="max" from="-20731456#4" to="-20723368#6"/>
    <trip id="veh117" type="veh_passenger" depart="92.43" departLane="best" from="-431114747" to="429798638#4"/>
    <trip id="veh118" type="veh_passenger" depart="93.22" departLane="best" departSpeed="max" from="20721060#0" to="20722480#0"/>
    <trip id="veh119" type="veh_passenger" depart="94.01" departLane="best" from="1193298987#1" to="-20721211#2"/>
    <trip id="veh120" type="veh_passenger" depart="94.80" departLane="best" from="1221220838" to="582400500#1"/>
    <trip id="veh121" type="veh_passenger" depart="95.59" departLane="best" from="-20728987#0" to="20728245#1"/>
    <trip id="veh122" type="veh_passenger" depart="96.37" departLane="best" from="-20731549#3" to="1193298989#2"/>
    <trip id="veh123" type="veh_passenger" depart="97.16" departLane="best" from="20724549#6" to="-1012222977#0"/>
    <trip id="veh124" type="veh_passenger" depart="97.95" departLane="best" from="734944819#0" to="20730161#1"/>
    <trip id="veh125" type="veh_passenger" depart="98.74" departLane="best" departSpeed="max" from="-20720065" to="1204455594#5"/>
    <trip id="veh126" type="veh_passenger" depart="99.53" departLane="best" from="988506882#1" to="896491451#3"/>
    <trip id="veh127" type="veh_passenger" depart="100.32" departLane="best" departSpeed="max" from="-20720065" to="20731516#0"/>
    <trip id="veh128" type="veh_passenger" depart="101.11" departLane="best" departSpeed="max" from="-319032717#5" to="582400500#2"/>
    <trip id="veh129" type="veh_passenger" depart="101.90" departLane="best" from="430671832#1" to="429798640#0"/>
    <trip id="veh130" type="veh_passenger" depart="102.69" departLane="best" departSpeed="max" from="1136289376#0" to="20726850#1"/>
    <trip id="veh131" type="veh_passenger" depart="103.48" departLane="best" from="-20721822#4" to="895523423#0"/>
    <trip id="veh132" type="veh_passenger" depart="104.27" departLane="best" from="-20723754#3" to="-1074968386#2"/>
    <trip id="veh133" type="veh_passenger" depart="105.06" departLane="best" from="386932926#1" to="988506883"/>
    <trip id="veh134" type="veh_passenger" depart="105.85" departLane="best" from="20724142#7" to="618582211#2"/>
    <trip id="veh135" type="veh_passenger" depart="106.64" departLane="best" from="-20723754#2" to="-20722984#0"/>
    <trip id="veh136" type="veh_passenger" depart="107.43" departLane="best" departSpeed="max" from="-20722029#5" to="20719641#16"/>
    <trip id="veh137" type="veh_passenger" depart="108.22" departLane="best" from="-429556697#2" to="20722029#1"/>
    <trip id="veh138" type="veh_passenger" depart="109.01" departLane="best" from="-20728245#0" to="-20729920#2"/>
    <trip id="veh139" type="veh_passenger" depart="109.80" departLane="best" from="-20722549#1" to="582400365#2"/>
    <trip id="veh140" type="veh_passenger" depart="110.59" departLane="best" from="1212185894" to="45827831#4"/>
    <trip id="veh141" type="veh_passenger" depart="111.38" departLane="best" departSpeed="max" from="408302604#0" to="-20721702#1"/>
    <trip id="veh142" type="veh_passenger" depart="112.17" departLane="best" from="1193299003#3" to="-620674934#0"/>
    <trip id="veh143" type="veh_passenger" depart="112.96" departLane="best" from="1058124198" to="20731516#4"/>
    <trip id="veh144" type="veh_passenger" depart="113.75" departLane="best" from="20722616#5" to="-487482849#4"/>
    <trip id="veh145" type="veh_passenger" depart="114.54" departLane="best" from="144498375#0" to="20719641#12"/>
    <trip id="veh146" type="veh_passenger" depart="115.33" departLane="best" from="1193299004#5" to="-1075344794#1"/>
    <trip id="veh147" type="veh_passenger" depart="116.12" departLane="best" from="20720237#2" to="429801029#0"/>
    <trip id="veh148" type="veh_passenger" depart="116.91" departLane="best" from="45827863#4" to="20719348#6"/>
    <trip id="veh149" type="veh_passenger" depart="117.70" departLane="best" from="408302583#1" to="20721206#3"/>
    <trip id="veh150" type="veh_passenger" depart="118.49" departLane="best" from="-20724271#4" to="20723946#1"/>
    <trip id="veh151" type="veh_passenger" depart="119.28" departLane="best" from="-620674934#1" to="431483783#3"/>
    <trip id="veh153" type="veh_passenger" depart="120.86" departLane="best" from="45827845#0" to="-20730743#0"/>
    <trip id="veh154" type="veh_passenger" depart="121.65" departLane="best" from="-20732052#6" to="-20722147#2"/>
    <trip id="veh155" type="veh_passenger" depart="122.44" departLane="best" from="20732052#2" to="430671827"/>
    <trip id="veh156" type="veh_passenger" depart="123.23" departLane="best" departSpeed="max" from="1191558392" to="20722507"/>
    <trip id="veh157" type="veh_passenger" depart="124.02" departLane="best" from="-20724649" to="-582400446#2"/>
    <trip id="veh158" type="veh_passenger" depart="124.81" departLane="best" from="415318249#9" to="895512181#1"/>
    <trip id="veh159" type="veh_passenger" depart="125.60" departLane="best" from="269259169#2" to="1204455600#0"/>
    <trip id="veh160" type="veh_passenger" depart="126.39" departLane="best" from="-1190524903#1" to="20729480#11"/>
    <trip id="veh161" type="veh_passenger" depart="127.18" departLane="best" from="1013632325#2" to="582400465#0"/>
    <trip id="veh163" type="veh_passenger" depart="128.76" departLane="best" from="269259169#2" to="582400446#4"/>
    <trip id="veh164" type="veh_passenger" depart="129.55" departLane="best" from="20732349#2" to="-20722553"/>
    <trip id="veh165" type="veh_passenger" depart="130.34" departLane="best" from="429798639#0" to="410060082#1"/>
    <trip id="veh166" type="veh_passenger" depart="131.13" departLane="best" from="-20730205#1" to="319032717#5"/>
    <trip id="veh167" type="veh_passenger" depart="131.92" departLane="best" from="1209238773#0" to="1027502852-AddedOnRampEdge"/>
    <trip id="veh168" type="veh_passenger" depart="132.71" departLane="best" from="228621544#1" to="-20732279#0"/>
    <trip id="veh169" type="veh_passenger" depart="133.50" departLane="best" from="1190362129#5" to="-20729135#4"/>
    <trip id="veh171" type="veh_passenger" depart="135.08" departLane="best" departSpeed="max" from="895449587#0" to="-621514180#3"/>
    <trip id="veh172" type="veh_passenger" depart="135.87" departLane="best" from="-20722940#4" to="1193299004#3"/>
    <trip id="veh173" type="veh_passenger" depart="136.66" departLane="best" from="895512184#1-AddedOffRampEdge" to="20718240#1"/>
    <trip id="veh174" type="veh_passenger" depart="137.45" departLane="best" from="620674934#2" to="-20722984#0"/>
    <trip id="veh175" type="veh_passenger" depart="138.24" departLane="best" from="895449587#2" to="-20728219#1"/>
    <trip id="veh176" type="veh_passenger" depart="139.03" departLane="best" from="765301068#1" to="-582400446#0"/>
    <trip id="veh177" type="veh_passenger" depart="139.82" departLane="best" from="-20722093#0" to="1209238775#0"/>
    <trip id="veh178" type="veh_passenger" depart="140.61" departLane="best" from="20728987#4" to="1027502856#1-AddedOnRampEdge"/>
    <trip id="veh180" type="veh_passenger" depart="142.19" departLane="best" from="1188206724#1" to="-20721060#1"/>
    <trip id="veh181" type="veh_passenger" depart="142.98" departLane="best" departSpeed="max" from="-20732274#1" to="20727908#0"/>
    <trip id="veh182" type="veh_passenger" depart="143.77" departLane="best" from="1013632325#0" to="-487482849#4"/>
    <trip id="veh183" type="veh_passenger" depart="144.56" departLane="best" departSpeed="max" from="136806735#0" to="20728776"/>
    <trip id="veh184" type="veh_passenger" depart="145.35" departLane="best" from="20729480#7" to="20724774#1"/>
    <trip id="veh185" type="veh_passenger" depart="146.14" departLane="best" from="1077547963#1" to="-20720237#3"/>
    <trip id="veh186" type="veh_passenger" depart="146.93" departLane="best" from="20724191#2" to="-1074968386#0"/>
    <trip id="veh187" type="veh_passenger" depart="147.72" departLane="best" from="-627030713#1" to="408302592#6"/>
    <trip id="veh188" type="veh_passenger" depart="148.51" departLane="best" from="-20728478" to="1012222996"/>
    <trip id="veh189" type="veh_passenger" depart="149.30" departLane="best" from="-621514180#0" to="45837054#3"/>
    <trip id="veh190" type="veh_passenger" depart="150.09" departLane="best" from="1190524911#2" to="895512175#0"/>
    <trip id="veh191" type="veh_passenger" depart="150.88" departLane="best" from="-20723368#2" to="1204468934#1"/>
    <trip id="veh192" type="veh_passenger" depart="151.67" departLane="best" from="621514180#2" to="20725301#0"/>
    <trip id="veh193" type="veh_passenger" depart="152.46" departLane="best" from="45827863#1" to="20722080#7"/>
    <trip id="veh194" type="veh_passenger" depart="153.25" departLane="best" from="-582400540#1" to="20719391#6"/>
    <trip id="veh195" type="veh_passenger" depart="154.04" departLane="best" from="1012222977#0" to="847015803#1"/>
    <trip id="veh196" type="veh_passenger" depart="154.83" departLane="best" from="1212185915" to="20721104#2"/>
    <trip id="veh197" type="veh_passenger" depart="155.62" departLane="best" from="20723754#6" to="1212185896#1"/>
    <trip id="veh198" type="veh_passenger" depart="156.41" departLane="best" from="1204455595#0" to="-20731516#3"/>
    <trip id="veh199" type="veh_passenger" depart="157.20" departLane="best" from="1209238781#0" to="431484451#2"/>
    <trip id="veh200" type="veh_passenger" depart="157.99" departLane="best" from="228621544#1" to="20727618#0"/>
    <trip id="veh201" type="veh_passenger" depart="158.78" departLane="best" from="20721060#1" to="139931401"/>
    <trip id="veh202" type="veh_passenger" depart="159.57" departLane="best" from="20722464#2" to="1077200899#2"/>
    <trip id="veh203" type="veh_passenger" depart="160.36" departLane="best" from="386932926#1" to="20730003#0"/>
    <trip id="veh204" type="veh_passenger" depart="161.15" departLane="best" from="20724649" to="-20732052#2"/>
    <trip id="veh205" type="veh_passenger" depart="161.94" departLane="best" from="-20728554" to="-1190362129#1"/>
    <trip id="veh206" type="veh_passenger" depart="162.73" departLane="best" departSpeed="max" from="-20731702#7" to="1212185908"/>
    <trip id="veh207" type="veh_passenger" depart="163.52" departLane="best" from="408302592#2" to="-20720297#3"/>
    <trip id="veh208" type="veh_passenger" depart="164.31" departLane="best" from="20729480#8" to="20722888#3"/>
    <trip id="veh209" type="veh_passenger" depart="165.10" departLane="best" departSpeed="max" from="-20728225" to="20727060#0"/>
    <trip id="veh211" type="veh_passenger" depart="166.68" departLane="best" from="-20723931#2" to="-1058124820#1"/>
    <trip id="veh212" type="veh_passenger" depart="167.47" departLane="best" departSpeed="max" from="20729913" to="20731456#4"/>
    <trip id="veh213" type="veh_passenger" depart="168.26" departLane="best" departSpeed="max" from="-20722029#5" to="1209238767"/>
    <trip id="veh214" type="veh_passenger" depart="169.05" departLane="best" from="-20726850#4" to="747369479#0"/>
    <trip id="veh215" type="veh_passenger" depart="169.84" departLane="best" from="1213734826#2" to="20718078"/>
    <trip id="veh216" type="veh_passenger" depart="170.63" departLane="best" from="-20732052#5" to="408302592#6"/>
    <trip id="veh217" type="veh_passenger" depart="171.42" departLane="best" from="-20724271#2" to="1027502854#1"/>
    <trip id="veh218" type="veh_passenger" depart="172.21" departLane="best" from="20721060#1" to="626727176#0"/>
    <trip id="veh219" type="veh_passenger" depart="173.00" departLane="best" from="431483783#1" to="20722080#4"/>
    <trip id="veh220" type="veh_passenger" depart="173.79" departLane="best" from="-20728453#1" to="1221220838"/>
    <trip id="veh221" type="veh_passenger" depart="174.58" departLane="best" from="408302579#0" to="-20719391#6"/>
    <trip id="veh222" type="veh_passenger" depart="175.37" departLane="best" from="45827831#1" to="20729659#4"/>
    <trip id="veh223" type="veh_passenger" depart="176.16" departLane="best" from="1054225659#0" to="-45883891#0"/>
    <trip id="veh224" type="veh_passenger" depart="176.95" departLane="best" from="-20731705#2" to="20723332#1"/>
    <trip id="veh225" type="veh_passenger" depart="177.74" departLane="best" from="20731516#3" to="145186859"/>
    <trip id="veh226" type="veh_passenger" depart="178.53" departLane="best" from="20722080#6" to="620674933#0"/>
    <trip id="veh227" type="veh_passenger" depart="179.32" departLane="best" from="20720297#1" to="-845876627#0"/>
    <trip id="veh229" type="veh_passenger" depart="180.90" departLane="best" from="136806735#2" to="20724549#4"/>
    <trip id="veh230" type="veh_passenger" depart="181.69" departLane="best" departSpeed="max" from="-20730743#3" to="-20727046#2"/>
    <trip id="veh231" type="veh_passenger" depart="182.48" departLane="best" from="20727738#2" to="20719641#7"/>
    <trip id="veh232" type="veh_passenger" depart="183.27" departLane="best" departSpeed="max" from="1191558392" to="20719002#6"/>
    <trip id="veh233" type="veh_passenger" depart="184.06" departLane="best" from="1191598297#0" to="-20730205#1"/>
    <trip id="veh234" type="veh_passenger" depart="184.85" departLane="best" from="1193298987#2" to="45827831#3"/>
    <trip id="veh235" type="veh_passenger" depart="185.64" departLane="best" from="20720297#4" to="-20727046#7"/>
    <trip id="veh236" type="veh_passenger" depart="186.43" departLane="best" from="410060082#1" to="20730759#0"/>
    <trip id="veh237" type="veh_passenger" depart="187.22" departLane="best" from="1151938899#0" to="-1058124820#2"/>
    <trip id="veh238" type="veh_passenger" depart="188.01" departLane="best" from="1058124820#2" to="20730161#3"/>
    <trip id="veh239" type="veh_passenger" depart="188.80" departLane="best" from="408302604#8" to="627030713#4"/>
    <trip id="veh240" type="veh_passenger" depart="189.59" departLane="best" from="1193299006#0" to="20729860#6"/>
    <trip id="veh241" type="veh_passenger" depart="190.38" departLane="best" from="145186859" to="20722000#3"/>
    <trip id="veh242" type="veh_passenger" depart="191.17" departLane="best" departSpeed="max" from="-20730161#3" to="-20731695#3"/>
    <trip id="veh243" type="veh_passenger" depart="191.96" departLane="best" from="1203812341#0" to="-1190524903#3"/>
    <trip id="veh244" type="veh_passenger" depart="192.75" departLane="best" from="1027502854#2" to="20725791#1"/>
    <trip id="veh245" type="veh_passenger" depart="193.54" departLane="best" from="1190524916#1" to="-20727478#0"/>