<<<<<<< HEAD
<configuration>
  <input>
    <net-file value="cologne3.net.xml"/>
	<route-files value="cologne3.rou.xml"/>
  </input>
  <time>
    <begin value="25200"/>
    <end value="28800"/>
  </time>
</configuration>
=======
<configuration>
  <input>
    <net-file value="cologne3.net.xml"/>
	<route-files value="cologne3.rou.xml"/>
  </input>
  <time>
    <begin value="25200"/>
    <end value="28800"/>
  </time>
</configuration>
>>>>>>> 372726549ebf36ace76825d87cc871206965e5a4
